examples/cigre/opendss/Kersting6p1_VLN_Node.Txt

LINE-GROUND and LINE-LINE VOLTAGES BY BUS & NODE

Bus  Node    VLN (kV)   Angle      pu     Base kV    Node-Node   VLL (kV)  Angle      pu

R1 . 1       230.91 /_    0.0    999.88     0.400        1-2     399.95 /_   30.0    999.88
   - 2       230.91 /_ -120.0    999.88     0.400        2-3     399.95 /_  -90.0    999.88
   - 3       230.91 /_  120.0    999.88     0.400        3-1     399.95 /_  150.0    999.88
R10  1       4.5847 /_  -37.4    19.852     0.400        1-2     7.9409 /_   -7.4    19.852
   - 2       4.5847 /_ -157.4    19.852     0.400        2-3     7.9409 /_ -127.4    19.852
   - 3       4.5847 /_   82.6    19.852     0.400        3-1     7.9409 /_  112.6    19.852
